* Deltares, D-Flow FM Version 1.1.92.000000, Mar 18 2014, 10:16:23
* File creation date: 11:25:57, 18-04-2023                                      
S0001
  27   2
  7.883862E+05  -1.552059E+05
  7.884635E+05  -1.560988E+05
  7.885065E+05  -1.565655E+05
  7.884893E+05  -1.568563E+05
  7.884664E+05  -1.571004E+05
  7.884979E+05  -1.573266E+05
  7.883516E+05  -1.574882E+05
  7.881429E+05  -1.575867E+05
  7.879880E+05  -1.576469E+05
  7.879271E+05  -1.575308E+05
  7.877917E+05  -1.573917E+05
  7.876821E+05  -1.573433E+05
  7.876432E+05  -1.572727E+05
  7.876376E+05  -1.571220E+05
  7.875729E+05  -1.570013E+05
  7.876834E+05  -1.569604E+05
  7.878612E+05  -1.568778E+05
  7.878011E+05  -1.567091E+05
  7.876232E+05  -1.566732E+05
  7.875572E+05  -1.565188E+05
  7.876204E+05  -1.563537E+05
  7.875716E+05  -1.561526E+05
  7.875429E+05  -1.560018E+05
  7.875859E+05  -1.558331E+05
  7.875659E+05  -1.556105E+05
  7.875630E+05  -1.554992E+05
  7.875889E+05  -1.553244E+05
S0002
  54   2
  7.895706E+05  -1.547176E+05
  7.893956E+05  -1.550192E+05
  7.893240E+05  -1.553991E+05
  7.892131E+05  -1.556385E+05
  7.891108E+05  -1.557020E+05
  7.891118E+05  -1.558671E+05
  7.891022E+05  -1.559975E+05
  7.891519E+05  -1.560676E+05
  7.889854E+05  -1.561023E+05
  7.889510E+05  -1.562783E+05
  7.888793E+05  -1.563429E+05
  7.888736E+05  -1.564542E+05
  7.888524E+05  -1.566257E+05
  7.889081E+05  -1.567356E+05
  7.890021E+05  -1.568403E+05
  7.888937E+05  -1.569568E+05
  7.888586E+05  -1.571086E+05
  7.888988E+05  -1.571944E+05
  7.890236E+05  -1.572271E+05
  7.890628E+05  -1.573592E+05
  7.889650E+05  -1.574122E+05
  7.888423E+05  -1.574378E+05
  7.887783E+05  -1.574820E+05
  7.887479E+05  -1.575437E+05
  7.887508E+05  -1.576999E+05
  7.888279E+05  -1.578496E+05
  7.887315E+05  -1.579138E+05
  7.886136E+05  -1.579302E+05
  7.885256E+05  -1.578818E+05
  7.883545E+05  -1.578580E+05
  7.882541E+05  -1.579226E+05
  7.881882E+05  -1.580016E+05
  7.881165E+05  -1.579986E+05
  7.881127E+05  -1.580740E+05
  7.880266E+05  -1.581925E+05
  7.879234E+05  -1.583133E+05
  7.877733E+05  -1.583624E+05
  7.875726E+05  -1.581613E+05
  7.874082E+05  -1.580746E+05
  7.872973E+05  -1.578245E+05
  7.872638E+05  -1.575672E+05
  7.871444E+05  -1.574552E+05
  7.872476E+05  -1.573607E+05
  7.871789E+05  -1.571040E+05
  7.871502E+05  -1.569257E+05
  7.873027E+05  -1.567320E+05
  7.872966E+05  -1.566175E+05
  7.872951E+05  -1.565170E+05
  7.872538E+05  -1.563311E+05
  7.871693E+05  -1.562701E+05
  7.869998E+05  -1.562182E+05
  7.869247E+05  -1.560763E+05
  7.869379E+05  -1.558629E+05
  7.868691E+05  -1.556834E+05
S0003
   2   2
  7.883366E+05  -1.553165E+05
  7.894234E+05  -1.552196E+05
S0004
   2   2
  7.883710E+05  -1.557366E+05
  7.893346E+05  -1.556827E+05
S0005
   2   2
  7.883710E+05  -1.562248E+05
  7.891166E+05  -1.562608E+05
S0006
   2   2
  7.884341E+05  -1.565713E+05
  7.890765E+05  -1.566287E+05
S0007
   2   2
  7.884370E+05  -1.569160E+05
  7.890392E+05  -1.569088E+05
S0008
   2   2
  7.884026E+05  -1.571493E+05
  7.891740E+05  -1.571816E+05
S0009
   2   2
  7.883481E+05  -1.573576E+05
  7.889274E+05  -1.575802E+05
S0010
   2   2
  7.883051E+05  -1.574294E+05
  7.887180E+05  -1.579930E+05
S0011
   2   2
  7.881903E+05  -1.574796E+05
  7.883911E+05  -1.581367E+05
S0012
   2   2
  7.879380E+05  -1.573863E+05
  7.877831E+05  -1.584382E+05
S0013
   2   2
  7.878061E+05  -1.571673E+05
  7.873931E+05  -1.581762E+05
S0014
   2   2
  7.876856E+05  -1.571242E+05
  7.871608E+05  -1.572642E+05
S0015
   2   2
  7.876369E+05  -1.570201E+05
  7.871379E+05  -1.568621E+05
S0016
   2   2
  7.876999E+05  -1.566216E+05
  7.872784E+05  -1.566898E+05
S0017
   2   2
  7.876885E+05  -1.562661E+05
  7.872210E+05  -1.564708E+05
S0018
   2   2
  7.877401E+05  -1.555122E+05
  7.867794E+05  -1.560399E+05
S0019
   7   2
  7.877124E+05  -1.559681E+05
  7.869334E+05  -1.563630E+05
  7.868562E+05  -1.564144E+05
  7.866437E+05  -1.565128E+05
  7.864191E+05  -1.566067E+05
  7.861470E+05  -1.566922E+05
  7.859975E+05  -1.567288E+05
S0020
   8   2
  7.876503E+05  -1.558400E+05
  7.870702E+05  -1.561652E+05
  7.869584E+05  -1.562932E+05
  7.868447E+05  -1.563977E+05
  7.867092E+05  -1.564651E+05
  7.865506E+05  -1.565248E+05
  7.863301E+05  -1.566071E+05
  7.859911E+05  -1.567102E+05
S0021
   2   2
  7.876579E+05  -1.553212E+05
  7.868206E+05  -1.558598E+05
S0022
   2   2
  7.868708E+05  -1.563314E+05
  7.869059E+05  -1.564056E+05
S0023
   7   2
  7.882188E+05  -1.580511E+05
  7.881577E+05  -1.580607E+05
  7.881372E+05  -1.580256E+05
  7.881111E+05  -1.580323E+05
  7.880468E+05  -1.579949E+05
  7.880191E+05  -1.578722E+05
  7.880234E+05  -1.575901E+05
S0024
   7   2
  7.882172E+05  -1.580363E+05
  7.881723E+05  -1.580447E+05
  7.881475E+05  -1.580120E+05
  7.881112E+05  -1.579897E+05
  7.880755E+05  -1.578482E+05
  7.880927E+05  -1.577084E+05
  7.880872E+05  -1.575933E+05
S0025
   2   2
  7.882141E+05  -1.580636E+05
  7.882090E+05  -1.580317E+05
S0026
   2   2
  7.881523E+05  -1.580672E+05
  7.881791E+05  -1.580262E+05
S0027
  27   2
  7.870199E+05  -1.556155E+05
  7.871466E+05  -1.559459E+05
  7.872412E+05  -1.560392E+05
  7.873989E+05  -1.565060E+05
  7.873932E+05  -1.568075E+05
  7.873502E+05  -1.570912E+05
  7.873416E+05  -1.573317E+05
  7.873846E+05  -1.576584E+05
  7.874993E+05  -1.578846E+05
  7.877086E+05  -1.580354E+05
  7.879782E+05  -1.580641E+05
  7.881359E+05  -1.579313E+05
  7.882965E+05  -1.578164E+05
  7.884743E+05  -1.577518E+05
  7.885690E+05  -1.576908E+05
  7.886407E+05  -1.575400E+05
  7.886608E+05  -1.573676E+05
  7.887372E+05  -1.572689E+05
  7.887793E+05  -1.570595E+05
  7.887831E+05  -1.568775E+05
  7.887678E+05  -1.565131E+05
  7.888768E+05  -1.560733E+05
  7.889561E+05  -1.559644E+05
  7.890518E+05  -1.556419E+05
  7.891435E+05  -1.554899E+05
  7.892028E+05  -1.553468E+05
  7.892142E+05  -1.551195E+05
S0028
  24   2
  7.873764E+05  -1.554049E+05
  7.873669E+05  -1.558717E+05
  7.874352E+05  -1.561845E+05
  7.874802E+05  -1.562809E+05
  7.874955E+05  -1.565717E+05
  7.874908E+05  -1.566674E+05
  7.875634E+05  -1.567955E+05
  7.875614E+05  -1.568482E+05
  7.875251E+05  -1.569116E+05
  7.874773E+05  -1.570809E+05
  7.875012E+05  -1.572724E+05
  7.875758E+05  -1.574740E+05
  7.876857E+05  -1.575901E+05
  7.878090E+05  -1.577050E+05
  7.878606E+05  -1.577888E+05
  7.881044E+05  -1.577194E+05
  7.883013E+05  -1.576212E+05
  7.884667E+05  -1.575010E+05
  7.885814E+05  -1.573143E+05
  7.885976E+05  -1.569594E+05
  7.886244E+05  -1.564430E+05
  7.886550E+05  -1.559350E+05
  7.886655E+05  -1.554557E+05
  7.886263E+05  -1.551295E+05
S0029
   2   2
  7.878980E+05  -1.568857E+05
  7.872327E+05  -1.567875E+05
S0030
   2   2
  7.878884E+05  -1.567385E+05
  7.872375E+05  -1.567349E+05
S0031
   2   2
  7.875243E+05  -1.582314E+05
  7.878564E+05  -1.573565E+05
S0032
   2   2
  7.868314E+05  -1.563818E+05
  7.868528E+05  -1.564512E+05
S0033
   2   2
  7.867362E+05  -1.564313E+05
  7.867489E+05  -1.564751E+05
S0034
   2   2
  7.866466E+05  -1.564684E+05
  7.866514E+05  -1.565310E+05
S0035
   2   2
  7.865574E+05  -1.565047E+05
  7.865714E+05  -1.565721E+05
S0036
   2   2
  7.864638E+05  -1.565328E+05
  7.864778E+05  -1.566074E+05
S0037
   2   2
  7.863424E+05  -1.565807E+05
  7.863558E+05  -1.566457E+05
S0038
   2   2
  7.862089E+05  -1.566152E+05
  7.862197E+05  -1.567005E+05
S0039
   2   2
  7.860696E+05  -1.566636E+05
  7.860734E+05  -1.567362E+05
S0040
   2   2
  7.859932E+05  -1.566796E+05
  7.860043E+05  -1.567653E+05
S0041
   2   2
  7.884524E+05  -1.572395E+05
  7.891234E+05  -1.573316E+05
S0042
   2   2
  7.889581E+05  -1.575040E+05
  7.884543E+05  -1.573292E+05
S0043
   2   2
  7.888558E+05  -1.578803E+05
  7.883588E+05  -1.574148E+05
S0044
   3   2
  7.890841E+05  -1.561114E+05
  7.887571E+05  -1.560073E+05
  7.884101E+05  -1.561138E+05
S0045
   3   2
  7.891691E+05  -1.558965E+05
  7.887122E+05  -1.558331E+05
  7.884006E+05  -1.559432E+05
S0046
   3   2
  7.893240E+05  -1.555531E+05
  7.888527E+05  -1.554920E+05
  7.883709E+05  -1.555770E+05
